<NUMBER OF ZONES> 	36
<NUMBER OF NODES> 	397
<FIRST THRU NODE> 	37
<NUMBER OF LINKS> 	871
<END OF METADATA> 	

~ 	 Init node 	 Term node 	 Capacity 	 Length 	 Free Flow Time 	 B 	 Power 	 Speed limit 	 Toll 	 Type 	 ;
	1	302	999999	0	0	0	4	0	0	0	;
	1	303	999999	0	0	0	4	0	0	0	;
	1	305	999999	0	0	0	4	0	0	0	;
	1	306	999999	0	0	0	4	0	0	0	;
	2	252	999999	0	0	0	4	0	0	0	;
	2	254	999999	0	0	0	4	0	0	0	;
	2	255	999999	0	0	0	4	0	0	0	;
	2	271	999999	0	0	0	4	0	0	0	;
	3	257	999999	0	0	0	4	0	0	0	;
	3	258	999999	0	0	0	4	0	0	0	;
	3	259	999999	0	0	0	4	0	0	0	;
	3	260	999999	0	0	0	4	0	0	0	;
	4	225	999999	0	0	0	4	0	0	0	;
	4	230	999999	0	0	0	4	0	0	0	;
	4	231	999999	0	0	0	4	0	0	0	;
	4	262	999999	0	0	0	4	0	0	0	;
	5	253	999999	0	0	0	4	0	0	0	;
	5	254	999999	0	0	0	4	0	0	0	;
	5	351	999999	0	0	0	4	0	0	0	;
	5	352	999999	0	0	0	4	0	0	0	;
	6	195	999999	0	0	0	4	0	0	0	;
	6	222	999999	0	0	0	4	0	0	0	;
	6	263	999999	0	0	0	4	0	0	0	;
	6	294	999999	0	0	0	4	0	0	0	;
	7	49	999999	0	0	0	4	0	0	0	;
	7	50	999999	0	0	0	4	0	0	0	;
	7	54	999999	0	0	0	4	0	0	0	;
	7	58	999999	0	0	0	4	0	0	0	;
	8	358	999999	0	0	0	4	0	0	0	;
	8	359	999999	0	0	0	4	0	0	0	;
	8	360	999999	0	0	0	4	0	0	0	;
	8	363	999999	0	0	0	4	0	0	0	;
	9	157	999999	0	0	0	4	0	0	0	;
	9	167	999999	0	0	0	4	0	0	0	;
	9	175	999999	0	0	0	4	0	0	0	;
	9	361	999999	0	0	0	4	0	0	0	;
	10	139	999999	0	0	0	4	0	0	0	;
	10	141	999999	0	0	0	4	0	0	0	;
	10	143	999999	0	0	0	4	0	0	0	;
	10	145	999999	0	0	0	4	0	0	0	;
	11	62	999999	0	0	0	4	0	0	0	;
	11	274	999999	0	0	0	4	0	0	0	;
	11	278	999999	0	0	0	4	0	0	0	;
	11	282	999999	0	0	0	4	0	0	0	;
	12	111	999999	0	0	0	4	0	0	0	;
	12	113	999999	0	0	0	4	0	0	0	;
	12	119	999999	0	0	0	4	0	0	0	;
	12	120	999999	0	0	0	4	0	0	0	;
	13	165	999999	0	0	0	4	0	0	0	;
	13	200	999999	0	0	0	4	0	0	0	;
	13	202	999999	0	0	0	4	0	0	0	;
	13	397	999999	0	0	0	4	0	0	0	;
	14	127	999999	0	0	0	4	0	0	0	;
	14	128	999999	0	0	0	4	0	0	0	;
	14	129	999999	0	0	0	4	0	0	0	;
	14	132	999999	0	0	0	4	0	0	0	;
	15	164	999999	0	0	0	4	0	0	0	;
	15	174	999999	0	0	0	4	0	0	0	;
	15	176	999999	0	0	0	4	0	0	0	;
	15	190	999999	0	0	0	4	0	0	0	;
	16	74	999999	0	0	0	4	0	0	0	;
	16	240	999999	0	0	0	4	0	0	0	;
	16	245	999999	0	0	0	4	0	0	0	;
	16	316	999999	0	0	0	4	0	0	0	;
	17	69	999999	0	0	0	4	0	0	0	;
	17	250	999999	0	0	0	4	0	0	0	;
	17	269	999999	0	0	0	4	0	0	0	;
	17	272	999999	0	0	0	4	0	0	0	;
	18	69	999999	0	0	0	4	0	0	0	;
	18	72	999999	0	0	0	4	0	0	0	;
	18	74	999999	0	0	0	4	0	0	0	;
	18	240	999999	0	0	0	4	0	0	0	;
	19	286	999999	0	0	0	4	0	0	0	;
	19	290	999999	0	0	0	4	0	0	0	;
	19	291	999999	0	0	0	4	0	0	0	;
	19	356	999999	0	0	0	4	0	0	0	;
	20	216	999999	0	0	0	4	0	0	0	;
	20	219	999999	0	0	0	4	0	0	0	;
	20	220	999999	0	0	0	4	0	0	0	;
	20	237	999999	0	0	0	4	0	0	0	;
	21	311	999999	0	0	0	4	0	0	0	;
	21	371	999999	0	0	0	4	0	0	0	;
	21	372	999999	0	0	0	4	0	0	0	;
	21	374	999999	0	0	0	4	0	0	0	;
	22	227	999999	0	0	0	4	0	0	0	;
	22	284	999999	0	0	0	4	0	0	0	;
	22	285	999999	0	0	0	4	0	0	0	;
	22	286	999999	0	0	0	4	0	0	0	;
	23	221	999999	0	0	0	4	0	0	0	;
	23	223	999999	0	0	0	4	0	0	0	;
	23	225	999999	0	0	0	4	0	0	0	;
	23	230	999999	0	0	0	4	0	0	0	;
	24	316	999999	0	0	0	4	0	0	0	;
	24	378	999999	0	0	0	4	0	0	0	;
	24	382	999999	0	0	0	4	0	0	0	;
	24	384	999999	0	0	0	4	0	0	0	;
	25	314	999999	0	0	0	4	0	0	0	;
	25	330	999999	0	0	0	4	0	0	0	;
	25	331	999999	0	0	0	4	0	0	0	;
	25	333	999999	0	0	0	4	0	0	0	;
	26	326	999999	0	0	0	4	0	0	0	;
	26	327	999999	0	0	0	4	0	0	0	;
	26	331	999999	0	0	0	4	0	0	0	;
	26	334	999999	0	0	0	4	0	0	0	;
	27	67	999999	0	0	0	4	0	0	0	;
	27	77	999999	0	0	0	4	0	0	0	;
	27	275	999999	0	0	0	4	0	0	0	;
	27	279	999999	0	0	0	4	0	0	0	;
	28	209	999999	0	0	0	4	0	0	0	;
	28	212	999999	0	0	0	4	0	0	0	;
	28	213	999999	0	0	0	4	0	0	0	;
	28	214	999999	0	0	0	4	0	0	0	;
	29	45	999999	0	0	0	4	0	0	0	;
	29	154	999999	0	0	0	4	0	0	0	;
	29	155	999999	0	0	0	4	0	0	0	;
	29	156	999999	0	0	0	4	0	0	0	;
	30	133	999999	0	0	0	4	0	0	0	;
	30	153	999999	0	0	0	4	0	0	0	;
	30	155	999999	0	0	0	4	0	0	0	;
	30	388	999999	0	0	0	4	0	0	0	;
	31	265	999999	0	0	0	4	0	0	0	;
	31	266	999999	0	0	0	4	0	0	0	;
	31	267	999999	0	0	0	4	0	0	0	;
	31	268	999999	0	0	0	4	0	0	0	;
	32	78	999999	0	0	0	4	0	0	0	;
	32	239	999999	0	0	0	4	0	0	0	;
	32	243	999999	0	0	0	4	0	0	0	;
	32	269	999999	0	0	0	4	0	0	0	;
	33	40	999999	0	0	0	4	0	0	0	;
	33	266	999999	0	0	0	4	0	0	0	;
	33	267	999999	0	0	0	4	0	0	0	;
	33	389	999999	0	0	0	4	0	0	0	;
	34	88	999999	0	0	0	4	0	0	0	;
	34	89	999999	0	0	0	4	0	0	0	;
	34	97	999999	0	0	0	4	0	0	0	;
	34	101	999999	0	0	0	4	0	0	0	;
	35	146	999999	0	0	0	4	0	0	0	;
	35	147	999999	0	0	0	4	0	0	0	;
	35	148	999999	0	0	0	4	0	0	0	;
	35	149	999999	0	0	0	4	0	0	0	;
	36	239	999999	0	0	0	4	0	0	0	;
	36	246	999999	0	0	0	4	0	0	0	;
	36	267	999999	0	0	0	4	0	0	0	;
	36	353	999999	0	0	0	4	0	0	0	;
	37	38	2400	1	0.33333299999999999041	1	4	0	0	1	;
	37	374	2400	142	4.6666670000000003427	1	4	0	0	1	;
	38	37	2400	1	0.33333299999999999041	1	4	0	0	1	;
	40	33	999999	0	0	0	4	0	0	0	;
	40	389	2400	24	0.66666700000000000959	1	4	0	0	1	;
	41	100	600	315	8	1	4	0	0	1	;
	41	112	600	240	6	1	4	0	0	1	;
	42	41	600	196	5	1	4	0	0	1	;
	43	45	2800	44	1.3333330000000001014	1	4	0	0	1	;
	43	46	2800	320	18.333332999999999657	1	4	0	0	1	;
	44	45	2800	321	19.333332999999999657	1	4	0	0	1	;
	44	46	2800	39	1.3333330000000001014	1	4	0	0	1	;
	45	29	999999	0	0	0	4	0	0	0	;
	45	48	2800	35	1.3333330000000001014	1	4	0	0	1	;
	45	211	2800	82	2	1	4	0	0	1	;
	46	65	2800	23	0.66666700000000000959	1	4	0	0	1	;
	47	43	2800	37	1.6666669999999998986	1	4	0	0	1	;
	48	47	2800	43	5.3333329999999996573	1	4	0	0	1	;
	48	156	2400	251	6.3333329999999996573	1	4	0	0	1	;
	49	7	999999	0	0	0	4	0	0	0	;
	49	50	2800	126	9	1	4	0	0	1	;
	50	7	999999	0	0	0	4	0	0	0	;
	50	53	2400	30	1	1	4	0	0	1	;
	50	57	2800	51	1.6666669999999998986	1	4	0	0	1	;
	50	195	2400	194	9.3333329999999996573	1	4	0	0	1	;
	51	53	2800	92	7.6666670000000003427	1	4	0	0	1	;
	51	162	900	125	4.6666670000000003427	1	4	0	0	1	;
	52	49	2800	114	3.3333330000000001014	1	4	0	0	1	;
	53	50	2800	30	1.6666669999999998986	1	4	0	0	1	;
	53	54	2800	103	3.6666669999999998986	1	4	0	0	1	;
	53	162	900	105	3	1	4	0	0	1	;
	54	7	999999	0	0	0	4	0	0	0	;
	54	58	2800	139	3.3333330000000001014	1	4	0	0	1	;
	55	52	2800	46	1	1	4	0	0	1	;
	56	63	2800	272	9.6666670000000003427	1	4	0	0	1	;
	57	56	2800	64	1.6666669999999998986	1	4	0	0	1	;
	58	7	999999	0	0	0	4	0	0	0	;
	58	59	2800	48	1	1	4	0	0	1	;
	59	60	2800	56	1.3333330000000001014	1	4	0	0	1	;
	59	393	2800	161	3.6666669999999998986	1	4	0	0	1	;
	60	171	600	140	4	1	4	0	0	1	;
	60	392	2800	106	2.6666669999999998986	1	4	0	0	1	;
	61	55	2800	132	2.6666669999999998986	1	4	0	0	1	;
	62	11	999999	0	0	0	4	0	0	0	;
	62	51	2800	301	12	1	4	0	0	1	;
	62	63	2800	23	0.66666700000000000959	1	4	0	0	1	;
	62	347	900	90	2.6666669999999998986	1	4	0	0	1	;
	63	64	2800	16	0.66666700000000000959	1	4	0	0	1	;
	63	278	900	339	8.6666670000000003427	1	4	0	0	1	;
	64	62	2800	19	1.3333330000000001014	1	4	0	0	1	;
	64	350	2800	115	3.3333330000000001014	1	4	0	0	1	;
	65	66	2800	36	1.6666669999999998986	1	4	0	0	1	;
	65	192	2400	280	8.6666670000000003427	1	4	0	0	1	;
	66	44	2800	22	0.66666700000000000959	1	4	0	0	1	;
	66	368	2800	43	1	1	4	0	0	1	;
	67	27	999999	0	0	0	4	0	0	0	;
	67	99	600	262	10.666667000000000343	1	4	0	0	1	;
	68	313	2800	133	8	1	4	0	0	1	;
	69	17	999999	0	0	0	4	0	0	0	;
	69	18	999999	0	0	0	4	0	0	0	;
	69	72	900	103	4	1	4	0	0	1	;
	69	244	900	77	2	1	4	0	0	1	;
	70	242	900	189	5	1	4	0	0	1	;
	71	39	900	304	7.3333329999999996573	1	4	0	0	1	;
	72	18	999999	0	0	0	4	0	0	0	;
	72	74	900	348	14.666667000000000343	1	4	0	0	1	;
	73	95	2400	568	30.333332999999999657	1	4	0	0	1	;
	74	16	999999	0	0	0	4	0	0	0	;
	74	18	999999	0	0	0	4	0	0	0	;
	74	69	900	451	11.333332999999999657	1	4	0	0	1	;
	74	316	900	445	11	1	4	0	0	1	;
	75	78	900	178	15.333332999999999657	1	4	0	0	1	;
	76	68	2800	137	7	1	4	0	0	1	;
	77	27	999999	0	0	0	4	0	0	0	;
	77	67	600	253	7	1	4	0	0	1	;
	77	103	600	236	6	1	4	0	0	1	;
	77	279	600	85	2.6666669999999998986	1	4	0	0	1	;
	78	32	999999	0	0	0	4	0	0	0	;
	78	80	2400	90	6.6666670000000003427	1	4	0	0	1	;
	78	250	900	463	14	1	4	0	0	1	;
	78	272	2400	285	12	1	4	0	0	1	;
	78	351	2400	310	10	1	4	0	0	1	;
	79	75	900	457	14.666667000000000343	1	4	0	0	1	;
	79	81	900	34	1.3333330000000001014	1	4	0	0	1	;
	79	242	900	66	3	1	4	0	0	1	;
	80	73	2400	277	18.333332999999999657	1	4	0	0	1	;
	80	78	2400	90	11.333332999999999657	1	4	0	0	1	;
	80	254	900	188	6.6666670000000003427	1	4	0	0	1	;
	81	79	900	34	1	1	4	0	0	1	;
	81	228	900	43	1.3333330000000001014	1	4	0	0	1	;
	82	96	2400	65	1.3333330000000001014	1	4	0	0	1	;
	82	99	2400	96	12.333332999999999657	1	4	0	0	1	;
	82	343	600	198	15.333332999999999657	1	4	0	0	1	;
	83	84	2400	132	9.6666670000000003427	1	4	0	0	1	;
	84	86	2400	197	15.333332999999999657	1	4	0	0	1	;
	84	90	2400	31	1.3333330000000001014	1	4	0	0	1	;
	84	251	2400	301	6.3333329999999996573	1	4	0	0	1	;
	85	86	600	31	1.3333330000000001014	1	4	0	0	1	;
	85	90	2400	198	10.666667000000000343	1	4	0	0	1	;
	85	343	600	137	15.333332999999999657	1	4	0	0	1	;
	86	85	600	31	1.3333330000000001014	1	4	0	0	1	;
	86	107	600	174	6.6666670000000003427	1	4	0	0	1	;
	86	383	2400	216	6.6666670000000003427	1	4	0	0	1	;
	87	84	2400	100	4.3333329999999996573	1	4	0	0	1	;
	88	34	999999	0	0	0	4	0	0	0	;
	88	103	2400	86	2.6666669999999998986	1	4	0	0	1	;
	89	34	999999	0	0	0	4	0	0	0	;
	89	93	2400	165	10.333332999999999657	1	4	0	0	1	;
	90	82	2400	137	8.6666670000000003427	1	4	0	0	1	;
	90	84	2400	31	0.66666700000000000959	1	4	0	0	1	;
	90	91	2400	128	4.6666670000000003427	1	4	0	0	1	;
	91	94	2400	132	8.3333329999999996573	1	4	0	0	1	;
	92	85	2400	131	13.333332999999999657	1	4	0	0	1	;
	93	83	2400	128	4	1	4	0	0	1	;
	93	94	900	38	1.6666669999999998986	1	4	0	0	1	;
	93	97	900	192	9.6666670000000003427	1	4	0	0	1	;
	94	88	2400	165	5	1	4	0	0	1	;
	94	93	900	38	2	1	4	0	0	1	;
	95	87	2400	75	4	1	4	0	0	1	;
	96	90	2400	72	1.6666669999999998986	1	4	0	0	1	;
	97	34	999999	0	0	0	4	0	0	0	;
	97	249	900	342	17.333332999999999657	1	4	0	0	1	;
	98	99	2400	102	2	1	4	0	0	1	;
	99	82	2400	96	2	1	4	0	0	1	;
	99	105	600	130	4.3333329999999996573	1	4	0	0	1	;
	99	319	2400	392	19	1	4	0	0	1	;
	99	342	600	201	9	1	4	0	0	1	;
	100	102	600	213	15	1	4	0	0	1	;
	100	391	600	122	3	1	4	0	0	1	;
	101	34	999999	0	0	0	4	0	0	0	;
	101	93	900	297	19	1	4	0	0	1	;
	102	100	600	213	5.3333329999999996573	1	4	0	0	1	;
	102	116	900	38	1.6666669999999998986	1	4	0	0	1	;
	102	136	900	78	2.3333330000000001014	1	4	0	0	1	;
	103	280	2400	196	9	1	4	0	0	1	;
	104	77	600	202	5	1	4	0	0	1	;
	105	77	600	385	11	1	4	0	0	1	;
	106	86	600	100	2.3333330000000001014	1	4	0	0	1	;
	107	106	600	74	2	1	4	0	0	1	;
	107	384	600	124	3.6666669999999998986	1	4	0	0	1	;
	108	89	2400	83	2	1	4	0	0	1	;
	109	117	900	106	3.6666669999999998986	1	4	0	0	1	;
	110	109	900	150	5.3333329999999996573	1	4	0	0	1	;
	110	118	900	51	1.3333330000000001014	1	4	0	0	1	;
	110	132	900	274	16	1	4	0	0	1	;
	110	395	900	291	8.6666670000000003427	1	4	0	0	1	;
	111	12	999999	0	0	0	4	0	0	0	;
	111	112	900	178	4.3333329999999996573	1	4	0	0	1	;
	112	42	600	44	1	1	4	0	0	1	;
	112	113	900	202	8.3333329999999996573	1	4	0	0	1	;
	112	124	900	128	4	1	4	0	0	1	;
	113	12	999999	0	0	0	4	0	0	0	;
	113	119	900	53	2.3333330000000001014	1	4	0	0	1	;
	113	120	900	51	1.3333330000000001014	1	4	0	0	1	;
	114	41	600	40	1.3333330000000001014	1	4	0	0	1	;
	114	112	600	191	6.6666670000000003427	1	4	0	0	1	;
	114	115	600	172	6.6666670000000003427	1	4	0	0	1	;
	115	117	600	235	13.666667000000000343	1	4	0	0	1	;
	116	102	900	38	2.3333330000000001014	1	4	0	0	1	;
	116	114	600	477	17	1	4	0	0	1	;
	116	117	900	256	6.6666670000000003427	1	4	0	0	1	;
	117	110	900	256	11.666667000000000343	1	4	0	0	1	;
	117	114	600	407	19	1	4	0	0	1	;
	117	116	900	256	11.333332999999999657	1	4	0	0	1	;
	118	119	900	156	6.6666670000000003427	1	4	0	0	1	;
	119	12	999999	0	0	0	4	0	0	0	;
	119	110	900	207	15.666667000000000343	1	4	0	0	1	;
	119	125	900	61	1.6666669999999998986	1	4	0	0	1	;
	120	12	999999	0	0	0	4	0	0	0	;
	120	125	900	22	0.66666700000000000959	1	4	0	0	1	;
	121	122	900	147	4.3333329999999996573	1	4	0	0	1	;
	121	128	2400	371	27.333332999999999657	1	4	0	0	1	;
	121	212	900	195	7	1	4	0	0	1	;
	121	349	2400	374	10.666667000000000343	1	4	0	0	1	;
	122	131	900	43	1.3333330000000001014	1	4	0	0	1	;
	123	124	900	87	5.3333329999999996573	1	4	0	0	1	;
	124	112	900	128	6.3333329999999996573	1	4	0	0	1	;
	124	121	900	299	21.333332999999999657	1	4	0	0	1	;
	125	126	900	24	2	1	4	0	0	1	;
	126	123	900	93	3.3333330000000001014	1	4	0	0	1	;
	127	14	999999	0	0	0	4	0	0	0	;
	127	128	2400	165	11	1	4	0	0	1	;
	128	14	999999	0	0	0	4	0	0	0	;
	128	110	900	348	14	1	4	0	0	1	;
	128	121	2400	371	12.666667000000000343	1	4	0	0	1	;
	128	129	600	100	3	1	4	0	0	1	;
	128	151	2400	417	15.666667000000000343	1	4	0	0	1	;
	129	14	999999	0	0	0	4	0	0	0	;
	129	128	600	100	2.3333330000000001014	1	4	0	0	1	;
	129	205	600	136	4.6666670000000003427	1	4	0	0	1	;
	130	44	2800	54	8	1	4	0	0	1	;
	130	367	2400	22	1	1	4	0	0	1	;
	131	124	900	109	3.3333330000000001014	1	4	0	0	1	;
	132	14	999999	0	0	0	4	0	0	0	;
	132	128	900	74	5.6666670000000003427	1	4	0	0	1	;
	133	30	999999	0	0	0	4	0	0	0	;
	133	385	2800	10	0.33333299999999999041	1	4	0	0	1	;
	134	116	900	75	9	1	4	0	0	1	;
	134	135	900	102	2.6666669999999998986	1	4	0	0	1	;
	134	136	900	31	0.66666700000000000959	1	4	0	0	1	;
	135	134	900	102	3	1	4	0	0	1	;
	135	136	900	87	2.3333330000000001014	1	4	0	0	1	;
	136	134	900	31	0.66666700000000000959	1	4	0	0	1	;
	136	135	900	87	2.3333330000000001014	1	4	0	0	1	;
	137	138	600	105	4	1	4	0	0	1	;
	138	139	2800	421	16.333332999999999657	1	4	0	0	1	;
	139	10	999999	0	0	0	4	0	0	0	;
	139	143	600	103	5.3333329999999996573	1	4	0	0	1	;
	139	270	2800	247	8	1	4	0	0	1	;
	139	273	600	18	1.3333330000000001014	1	4	0	0	1	;
	140	233	900	73	8.3333329999999996573	1	4	0	0	1	;
	140	292	900	104	5.3333329999999996573	1	4	0	0	1	;
	141	10	999999	0	0	0	4	0	0	0	;
	142	317	2400	29	1	1	4	0	0	1	;
	142	333	900	324	8	1	4	0	0	1	;
	143	10	999999	0	0	0	4	0	0	0	;
	143	141	600	309	12	1	4	0	0	1	;
	144	233	600	153	3.6666669999999998986	1	4	0	0	1	;
	145	10	999999	0	0	0	4	0	0	0	;
	145	139	600	289	16.666667000000000343	1	4	0	0	1	;
	146	35	999999	0	0	0	4	0	0	0	;
	146	148	2400	25	0.66666700000000000959	1	4	0	0	1	;
	147	35	999999	0	0	0	4	0	0	0	;
	147	148	2400	74	2	1	4	0	0	1	;
	148	35	999999	0	0	0	4	0	0	0	;
	148	146	2400	25	0.66666700000000000959	1	4	0	0	1	;
	148	152	2400	363	19.333332999999999657	1	4	0	0	1	;
	149	35	999999	0	0	0	4	0	0	0	;
	149	146	2400	356	21.333332999999999657	1	4	0	0	1	;
	149	152	2400	16	0.66666700000000000959	1	4	0	0	1	;
	150	149	2400	19	0.33333299999999999041	1	4	0	0	1	;
	150	206	2400	218	9.3333329999999996573	1	4	0	0	1	;
	151	149	2400	95	12	1	4	0	0	1	;
	152	177	2400	19	1	1	4	0	0	1	;
	152	191	2400	99	2.6666669999999998986	1	4	0	0	1	;
	153	30	999999	0	0	0	4	0	0	0	;
	153	154	2400	160	4	1	4	0	0	1	;
	154	29	999999	0	0	0	4	0	0	0	;
	154	47	2400	250	19.666667000000000343	1	4	0	0	1	;
	155	29	999999	0	0	0	4	0	0	0	;
	155	30	999999	0	0	0	4	0	0	0	;
	155	386	2400	124	2.6666669999999998986	1	4	0	0	1	;
	156	29	999999	0	0	0	4	0	0	0	;
	156	155	2400	69	1.6666669999999998986	1	4	0	0	1	;
	157	9	999999	0	0	0	4	0	0	0	;
	157	158	2800	154	4	1	4	0	0	1	;
	157	175	2800	33	1.6666669999999998986	1	4	0	0	1	;
	158	159	2800	126	7	1	4	0	0	1	;
	159	48	2800	88	10.666667000000000343	1	4	0	0	1	;
	161	180	2800	41	3.6666669999999998986	1	4	0	0	1	;
	161	186	2400	55	1.6666669999999998986	1	4	0	0	1	;
	162	53	2800	105	13	1	4	0	0	1	;
	162	170	900	7	0.33333299999999999041	1	4	0	0	1	;
	163	166	600	156	4	1	4	0	0	1	;
	164	15	999999	0	0	0	4	0	0	0	;
	164	174	2400	138	3.6666669999999998986	1	4	0	0	1	;
	165	13	999999	0	0	0	4	0	0	0	;
	165	166	600	101	2.6666669999999998986	1	4	0	0	1	;
	166	162	900	138	3.6666669999999998986	1	4	0	0	1	;
	166	169	900	185	4.3333329999999996573	1	4	0	0	1	;
	167	9	999999	0	0	0	4	0	0	0	;
	167	168	2800	161	6.3333329999999996573	1	4	0	0	1	;
	167	184	2800	34	1	1	4	0	0	1	;
	168	180	2400	32	0.66666700000000000959	1	4	0	0	1	;
	168	224	2800	37	1.3333330000000001014	1	4	0	0	1	;
	169	166	900	185	5	1	4	0	0	1	;
	169	173	600	141	6.6666670000000003427	1	4	0	0	1	;
	169	194	900	94	2.3333330000000001014	1	4	0	0	1	;
	170	166	900	131	4	1	4	0	0	1	;
	171	172	600	54	4	1	4	0	0	1	;
	172	60	600	194	5	1	4	0	0	1	;
	172	169	600	219	5.3333329999999996573	1	4	0	0	1	;
	173	172	600	78	4	1	4	0	0	1	;
	174	15	999999	0	0	0	4	0	0	0	;
	174	176	2400	53	1.3333330000000001014	1	4	0	0	1	;
	175	9	999999	0	0	0	4	0	0	0	;
	175	167	2800	40	1	1	4	0	0	1	;
	175	366	2800	69	1.6666669999999998986	1	4	0	0	1	;
	176	15	999999	0	0	0	4	0	0	0	;
	176	178	2400	108	5.3333329999999996573	1	4	0	0	1	;
	177	150	2400	15	1.3333330000000001014	1	4	0	0	1	;
	177	169	900	198	5	1	4	0	0	1	;
	178	177	2800	87	7.3333329999999996573	1	4	0	0	1	;
	179	184	2800	144	12.666667000000000343	1	4	0	0	1	;
	180	179	2800	31	2.6666669999999998986	1	4	0	0	1	;
	180	186	2400	49	1.3333330000000001014	1	4	0	0	1	;
	181	179	2400	107	8.6666670000000003427	1	4	0	0	1	;
	182	160	2800	24	1	1	4	0	0	1	;
	182	183	2800	27	1	1	4	0	0	1	;
	183	187	2800	344	7.6666670000000003427	1	4	0	0	1	;
	184	157	2800	38	3.3333330000000001014	1	4	0	0	1	;
	184	188	2800	60	1.6666669999999998986	1	4	0	0	1	;
	185	160	600	44	1.3333330000000001014	1	4	0	0	1	;
	185	183	2800	60	1.6666669999999998986	1	4	0	0	1	;
	186	189	2400	49	1	1	4	0	0	1	;
	187	157	2800	62	7.6666670000000003427	1	4	0	0	1	;
	187	188	2800	39	1	1	4	0	0	1	;
	188	182	2800	350	9.6666670000000003427	1	4	0	0	1	;
	189	164	2400	95	2.3333330000000001014	1	4	0	0	1	;
	190	15	999999	0	0	0	4	0	0	0	;
	190	181	2400	239	6.6666670000000003427	1	4	0	0	1	;
	191	190	2400	172	4.6666670000000003427	1	4	0	0	1	;
	192	193	2400	157	10.333332999999999657	1	4	0	0	1	;
	193	203	2400	10	0.33333299999999999041	1	4	0	0	1	;
	194	150	900	105	15	1	4	0	0	1	;
	195	6	999999	0	0	0	4	0	0	0	;
	195	222	2400	231	11	1	4	0	0	1	;
	196	193	900	48	6	1	4	0	0	1	;
	197	199	2400	39	1	1	4	0	0	1	;
	197	362	900	90	3	1	4	0	0	1	;
	198	66	2400	281	14	1	4	0	0	1	;
	199	198	2400	112	2.6666669999999998986	1	4	0	0	1	;
	200	13	999999	0	0	0	4	0	0	0	;
	200	202	600	206	5	1	4	0	0	1	;
	201	50	2400	67	11.666667000000000343	1	4	0	0	1	;
	202	13	999999	0	0	0	4	0	0	0	;
	202	205	600	366	9	1	4	0	0	1	;
	202	209	900	180	4.6666670000000003427	1	4	0	0	1	;
	202	397	900	71	2.3333330000000001014	1	4	0	0	1	;
	203	197	2400	19	1	1	4	0	0	1	;
	203	232	2400	22	0.66666700000000000959	1	4	0	0	1	;
	204	129	600	52	1.3333330000000001014	1	4	0	0	1	;
	205	200	600	160	7	1	4	0	0	1	;
	205	210	600	63	1.6666669999999998986	1	4	0	0	1	;
	206	127	2400	136	6	1	4	0	0	1	;
	207	208	2800	97	2.6666669999999998986	1	4	0	0	1	;
	208	175	2800	154	13.666667000000000343	1	4	0	0	1	;
	209	28	999999	0	0	0	4	0	0	0	;
	209	202	900	180	9	1	4	0	0	1	;
	209	213	600	156	4	1	4	0	0	1	;
	209	214	900	77	2	1	4	0	0	1	;
	210	204	600	30	0.66666700000000000959	1	4	0	0	1	;
	211	207	2800	33	0.66666700000000000959	1	4	0	0	1	;
	211	215	2800	84	2.3333330000000001014	1	4	0	0	1	;
	212	28	999999	0	0	0	4	0	0	0	;
	212	209	900	200	7.3333329999999996573	1	4	0	0	1	;
	213	28	999999	0	0	0	4	0	0	0	;
	214	28	999999	0	0	0	4	0	0	0	;
	214	121	900	318	8	1	4	0	0	1	;
	215	61	2800	545	13.333332999999999657	1	4	0	0	1	;
	216	20	999999	0	0	0	4	0	0	0	;
	216	217	900	119	4.3333329999999996573	1	4	0	0	1	;
	217	216	900	119	5.6666670000000003427	1	4	0	0	1	;
	217	218	900	42	1	1	4	0	0	1	;
	218	219	900	90	2.3333330000000001014	1	4	0	0	1	;
	219	20	999999	0	0	0	4	0	0	0	;
	219	218	900	90	2.3333330000000001014	1	4	0	0	1	;
	219	220	900	53	1.3333330000000001014	1	4	0	0	1	;
	220	20	999999	0	0	0	4	0	0	0	;
	220	216	900	113	11	1	4	0	0	1	;
	220	219	900	53	1.3333330000000001014	1	4	0	0	1	;
	220	289	900	300	21.333332999999999657	1	4	0	0	1	;
	221	23	999999	0	0	0	4	0	0	0	;
	221	223	2400	125	4.3333329999999996573	1	4	0	0	1	;
	221	238	600	20	0.33333299999999999041	1	4	0	0	1	;
	222	6	999999	0	0	0	4	0	0	0	;
	222	201	2400	358	15.666667000000000343	1	4	0	0	1	;
	222	236	2400	390	11	1	4	0	0	1	;
	222	294	2400	25	1.6666669999999998986	1	4	0	0	1	;
	223	23	999999	0	0	0	4	0	0	0	;
	223	197	2400	175	13	1	4	0	0	1	;
	224	55	2800	254	7.3333329999999996573	1	4	0	0	1	;
	225	4	999999	0	0	0	4	0	0	0	;
	225	23	999999	0	0	0	4	0	0	0	;
	225	227	900	339	21.333332999999999657	1	4	0	0	1	;
	225	231	900	154	9	1	4	0	0	1	;
	226	76	2800	200	9	1	4	0	0	1	;
	227	22	999999	0	0	0	4	0	0	0	;
	227	230	900	233	7.6666670000000003427	1	4	0	0	1	;
	227	285	2800	81	14.666667000000000343	1	4	0	0	1	;
	228	81	900	43	1.3333330000000001014	1	4	0	0	1	;
	228	241	900	203	10	1	4	0	0	1	;
	229	225	900	222	11.333332999999999657	1	4	0	0	1	;
	229	295	900	252	16	1	4	0	0	1	;
	230	4	999999	0	0	0	4	0	0	0	;
	230	23	999999	0	0	0	4	0	0	0	;
	230	225	900	106	9.6666670000000003427	1	4	0	0	1	;
	231	4	999999	0	0	0	4	0	0	0	;
	231	225	900	154	16.333332999999999657	1	4	0	0	1	;
	231	229	900	225	14.666667000000000343	1	4	0	0	1	;
	231	262	900	118	9.6666670000000003427	1	4	0	0	1	;
	232	234	2400	84	2	1	4	0	0	1	;
	233	140	900	73	6	1	4	0	0	1	;
	233	262	2800	41	4.6666670000000003427	1	4	0	0	1	;
	234	235	2400	61	1.3333330000000001014	1	4	0	0	1	;
	235	238	2400	132	4.3333329999999996573	1	4	0	0	1	;
	236	297	2400	45	1.6666669999999998986	1	4	0	0	1	;
	237	20	999999	0	0	0	4	0	0	0	;
	238	221	600	20	0.33333299999999999041	1	4	0	0	1	;
	238	237	600	102	3.6666669999999998986	1	4	0	0	1	;
	238	287	2800	284	23	1	4	0	0	1	;
	239	32	999999	0	0	0	4	0	0	0	;
	239	36	999999	0	0	0	4	0	0	0	;
	239	354	900	113	3.3333330000000001014	1	4	0	0	1	;
	240	16	999999	0	0	0	4	0	0	0	;
	240	18	999999	0	0	0	4	0	0	0	;
	240	74	900	73	1.6666669999999998986	1	4	0	0	1	;
	241	228	900	203	5.6666670000000003427	1	4	0	0	1	;
	241	239	900	173	9	1	4	0	0	1	;
	241	246	2400	320	11.333332999999999657	1	4	0	0	1	;
	241	269	2400	255	8.6666670000000003427	1	4	0	0	1	;
	242	71	900	58	2	1	4	0	0	1	;
	242	79	900	66	4.3333329999999996573	1	4	0	0	1	;
	242	244	900	105	3.3333330000000001014	1	4	0	0	1	;
	243	32	999999	0	0	0	4	0	0	0	;
	243	353	900	113	3	1	4	0	0	1	;
	243	375	900	293	9.3333329999999996573	1	4	0	0	1	;
	244	69	900	77	2.6666669999999998986	1	4	0	0	1	;
	244	242	900	105	2.6666669999999998986	1	4	0	0	1	;
	245	16	999999	0	0	0	4	0	0	0	;
	245	240	900	32	0.66666700000000000959	1	4	0	0	1	;
	246	36	999999	0	0	0	4	0	0	0	;
	246	241	2400	320	30.666667000000000343	1	4	0	0	1	;
	246	266	2400	459	20.333332999999999657	1	4	0	0	1	;
	246	268	600	186	4.6666670000000003427	1	4	0	0	1	;
	247	256	2400	187	4	1	4	0	0	1	;
	248	101	900	224	10.333332999999999657	1	4	0	0	1	;
	249	396	900	57	2.3333330000000001014	1	4	0	0	1	;
	250	17	999999	0	0	0	4	0	0	0	;
	250	79	900	172	13.333332999999999657	1	4	0	0	1	;
	251	247	2400	208	4.3333329999999996573	1	4	0	0	1	;
	252	2	999999	0	0	0	4	0	0	0	;
	252	80	900	409	28.333332999999999657	1	4	0	0	1	;
	252	257	600	174	6	1	4	0	0	1	;
	252	271	900	66	2.6666669999999998986	1	4	0	0	1	;
	252	352	900	384	21	1	4	0	0	1	;
	253	5	999999	0	0	0	4	0	0	0	;
	253	252	900	165	8.6666670000000003427	1	4	0	0	1	;
	254	2	999999	0	0	0	4	0	0	0	;
	254	5	999999	0	0	0	4	0	0	0	;
	254	252	900	221	13.333332999999999657	1	4	0	0	1	;
	255	2	999999	0	0	0	4	0	0	0	;
	255	271	900	93	8.3333329999999996573	1	4	0	0	1	;
	255	396	900	102	3.6666669999999998986	1	4	0	0	1	;
	256	80	2400	324	6.6666670000000003427	1	4	0	0	1	;
	257	3	999999	0	0	0	4	0	0	0	;
	257	252	600	174	12	1	4	0	0	1	;
	257	258	600	109	4	1	4	0	0	1	;
	258	3	999999	0	0	0	4	0	0	0	;
	258	259	600	60	2.6666669999999998986	1	4	0	0	1	;
	259	3	999999	0	0	0	4	0	0	0	;
	259	261	600	70	3	1	4	0	0	1	;
	260	3	999999	0	0	0	4	0	0	0	;
	260	257	600	241	9.6666670000000003427	1	4	0	0	1	;
	260	261	600	32	0.66666700000000000959	1	4	0	0	1	;
	261	144	600	261	6.6666670000000003427	1	4	0	0	1	;
	261	260	600	32	0.66666700000000000959	1	4	0	0	1	;
	262	4	999999	0	0	0	4	0	0	0	;
	262	231	900	118	7.6666670000000003427	1	4	0	0	1	;
	262	264	600	46	3.6666669999999998986	1	4	0	0	1	;
	263	6	999999	0	0	0	4	0	0	0	;
	263	294	900	178	12.666667000000000343	1	4	0	0	1	;
	264	260	600	210	10.666667000000000343	1	4	0	0	1	;
	265	31	999999	0	0	0	4	0	0	0	;
	265	268	600	123	3	1	4	0	0	1	;
	266	31	999999	0	0	0	4	0	0	0	;
	266	33	999999	0	0	0	4	0	0	0	;
	266	40	2400	167	5.3333329999999996573	1	4	0	0	1	;
	267	31	999999	0	0	0	4	0	0	0	;
	267	33	999999	0	0	0	4	0	0	0	;
	267	36	999999	0	0	0	4	0	0	0	;
	267	246	2400	202	7.3333329999999996573	1	4	0	0	1	;
	268	31	999999	0	0	0	4	0	0	0	;
	268	246	600	186	4.6666670000000003427	1	4	0	0	1	;
	269	17	999999	0	0	0	4	0	0	0	;
	269	32	999999	0	0	0	4	0	0	0	;
	269	78	2400	208	24	1	4	0	0	1	;
	270	276	2800	205	5.6666670000000003427	1	4	0	0	1	;
	270	281	600	16	0.33333299999999999041	1	4	0	0	1	;
	271	2	999999	0	0	0	4	0	0	0	;
	271	252	900	66	6	1	4	0	0	1	;
	271	255	900	93	4.3333329999999996573	1	4	0	0	1	;
	272	17	999999	0	0	0	4	0	0	0	;
	272	241	2400	178	21	1	4	0	0	1	;
	273	139	600	18	0.66666700000000000959	1	4	0	0	1	;
	273	226	2800	82	3	1	4	0	0	1	;
	274	11	999999	0	0	0	4	0	0	0	;
	274	64	2800	183	19	1	4	0	0	1	;
	275	27	999999	0	0	0	4	0	0	0	;
	275	279	600	25	2.3333330000000001014	1	4	0	0	1	;
	276	62	2800	211	10	1	4	0	0	1	;
	277	108	2400	113	3.3333330000000001014	1	4	0	0	1	;
	278	11	999999	0	0	0	4	0	0	0	;
	278	274	900	162	4.3333329999999996573	1	4	0	0	1	;
	278	275	600	294	7	1	4	0	0	1	;
	279	27	999999	0	0	0	4	0	0	0	;
	279	77	600	85	2.3333330000000001014	1	4	0	0	1	;
	279	282	600	205	5.3333329999999996573	1	4	0	0	1	;
	280	283	2400	141	7.6666670000000003427	1	4	0	0	1	;
	281	270	600	16	0.33333299999999999041	1	4	0	0	1	;
	281	273	2800	240	14.333332999999999657	1	4	0	0	1	;
	282	11	999999	0	0	0	4	0	0	0	;
	282	278	900	114	2.6666669999999998986	1	4	0	0	1	;
	283	222	2400	328	18	1	4	0	0	1	;
	284	22	999999	0	0	0	4	0	0	0	;
	284	285	2800	40	7	1	4	0	0	1	;
	284	286	2800	218	9	1	4	0	0	1	;
	285	22	999999	0	0	0	4	0	0	0	;
	285	221	2800	276	8.6666670000000003427	1	4	0	0	1	;
	285	227	900	81	2.6666669999999998986	1	4	0	0	1	;
	285	287	2800	12	0.66666700000000000959	1	4	0	0	1	;
	286	19	999999	0	0	0	4	0	0	0	;
	286	22	999999	0	0	0	4	0	0	0	;
	286	284	2800	218	12.333332999999999657	1	4	0	0	1	;
	286	352	2400	367	13.666667000000000343	1	4	0	0	1	;
	287	284	2400	37	1.6666669999999998986	1	4	0	0	1	;
	287	285	2800	12	0.66666700000000000959	1	4	0	0	1	;
	287	289	2400	363	20.333332999999999657	1	4	0	0	1	;
	288	287	2800	252	23	1	4	0	0	1	;
	289	220	900	300	12.333332999999999657	1	4	0	0	1	;
	289	288	2400	111	5.3333329999999996573	1	4	0	0	1	;
	289	311	2400	261	10.666667000000000343	1	4	0	0	1	;
	289	376	900	197	8.6666670000000003427	1	4	0	0	1	;
	290	19	999999	0	0	0	4	0	0	0	;
	290	286	600	70	1.6666669999999998986	1	4	0	0	1	;
	291	19	999999	0	0	0	4	0	0	0	;
	291	286	2400	131	4.6666670000000003427	1	4	0	0	1	;
	292	140	900	104	5.3333329999999996573	1	4	0	0	1	;
	292	263	900	105	7.6666670000000003427	1	4	0	0	1	;
	293	294	2800	351	14	1	4	0	0	1	;
	294	6	999999	0	0	0	4	0	0	0	;
	294	222	2400	25	1	1	4	0	0	1	;
	294	277	2400	539	24.333332999999999657	1	4	0	0	1	;
	294	292	900	283	10	1	4	0	0	1	;
	295	296	900	134	5.6666670000000003427	1	4	0	0	1	;
	295	299	2800	131	14.666667000000000343	1	4	0	0	1	;
	295	359	900	39	1	1	4	0	0	1	;
	296	229	900	118	8.6666670000000003427	1	4	0	0	1	;
	297	300	2800	198	10	1	4	0	0	1	;
	298	301	2400	196	11	1	4	0	0	1	;
	299	293	2400	271	10.666667000000000343	1	4	0	0	1	;
	299	300	2800	26	2	1	4	0	0	1	;
	300	298	2800	75	2.3333330000000001014	1	4	0	0	1	;
	300	357	2800	28	1	1	4	0	0	1	;
	301	167	2800	69	4.6666670000000003427	1	4	0	0	1	;
	301	366	2400	37	0.66666700000000000959	1	4	0	0	1	;
	302	1	999999	0	0	0	4	0	0	0	;
	302	303	600	100	2.3333330000000001014	1	4	0	0	1	;
	303	1	999999	0	0	0	4	0	0	0	;
	303	306	600	43	1	1	4	0	0	1	;
	303	307	600	192	4.6666670000000003427	1	4	0	0	1	;
	303	309	600	164	4	1	4	0	0	1	;
	304	311	600	97	2.3333330000000001014	1	4	0	0	1	;
	305	1	999999	0	0	0	4	0	0	0	;
	305	302	600	179	4.3333329999999996573	1	4	0	0	1	;
	306	1	999999	0	0	0	4	0	0	0	;
	306	310	600	114	3	1	4	0	0	1	;
	307	304	600	180	4.6666670000000003427	1	4	0	0	1	;
	308	309	600	176	4.3333329999999996573	1	4	0	0	1	;
	309	303	600	164	4	1	4	0	0	1	;
	309	310	600	387	9.6666670000000003427	1	4	0	0	1	;
	309	312	600	191	4.6666670000000003427	1	4	0	0	1	;
	310	303	600	157	4	1	4	0	0	1	;
	310	308	600	211	5.3333329999999996573	1	4	0	0	1	;
	311	21	999999	0	0	0	4	0	0	0	;
	311	289	2400	261	16	1	4	0	0	1	;
	311	305	600	190	4.6666670000000003427	1	4	0	0	1	;
	311	374	2400	234	8	1	4	0	0	1	;
	312	374	600	226	5.6666670000000003427	1	4	0	0	1	;
	313	138	2800	128	4.3333329999999996573	1	4	0	0	1	;
	313	314	2800	168	10.333332999999999657	1	4	0	0	1	;
	313	318	2400	104	2.6666669999999998986	1	4	0	0	1	;
	313	319	2400	96	4.6666670000000003427	1	4	0	0	1	;
	314	25	999999	0	0	0	4	0	0	0	;
	314	313	2800	168	8.3333329999999996573	1	4	0	0	1	;
	314	315	600	107	4	1	4	0	0	1	;
	314	320	600	103	4	1	4	0	0	1	;
	314	330	2800	219	22.666667000000000343	1	4	0	0	1	;
	315	314	600	107	2.6666669999999998986	1	4	0	0	1	;
	315	318	600	117	4	1	4	0	0	1	;
	315	325	600	121	3	1	4	0	0	1	;
	316	16	999999	0	0	0	4	0	0	0	;
	316	24	999999	0	0	0	4	0	0	0	;
	316	382	900	153	3.6666669999999998986	1	4	0	0	1	;
	317	142	2400	29	0.66666700000000000959	1	4	0	0	1	;
	317	318	2400	161	13.333332999999999657	1	4	0	0	1	;
	317	325	600	86	2	1	4	0	0	1	;
	318	137	600	128	6	1	4	0	0	1	;
	318	313	2400	104	6	1	4	0	0	1	;
	318	317	2400	161	4	1	4	0	0	1	;
	319	313	2400	96	5	1	4	0	0	1	;
	319	338	2400	190	9.3333329999999996573	1	4	0	0	1	;
	320	340	600	98	4.6666670000000003427	1	4	0	0	1	;
	321	335	900	83	2.6666669999999998986	1	4	0	0	1	;
	322	326	2400	144	11	1	4	0	0	1	;
	322	344	2400	128	3.3333330000000001014	1	4	0	0	1	;
	322	380	2400	29	1	1	4	0	0	1	;
	323	336	2800	64	2.3333330000000001014	1	4	0	0	1	;
	324	321	900	154	7	1	4	0	0	1	;
	324	323	2800	129	8	1	4	0	0	1	;
	324	330	2800	520	25	1	4	0	0	1	;
	325	315	600	121	3	1	4	0	0	1	;
	325	317	600	86	2	1	4	0	0	1	;
	326	26	999999	0	0	0	4	0	0	0	;